@<TRIPOS>MOLECULE
*****
 124 131 0 0 0
SMALL
USER_CHARGES

@<TRIPOS>ATOM
      1 N1        -36.8164   14.7475  -33.2329 N.am    1  FWZ1       -0.3337329452
      2 C4        -36.1827   14.4286  -30.9430 C.2     1  FWZ1        0.4277826417
      3 C5        -35.8313   17.4921  -30.7180 C.3     1  FWZ1       -0.2234873224
      4 C6        -36.2164   17.6690  -33.1615 C.3     1  FWZ1       -0.3471579166
      5 C7        -38.0667   16.8991  -31.6539 C.3     1  FWZ1       -0.6167402427
      6 C10       -35.1800   13.1647  -29.0674 C.3     1  FWZ1       -0.2543148816
      7 C13       -33.7314   14.5613  -30.4210 C.3     1  FWZ1       -0.2005777593
      8 C15       -36.1362   13.6600  -27.9778 C.2     1  FWZ1        0.7998154417
      9 C20       -37.5009   13.5099  -23.6980 C.ar    1  FWZ1        0.1791388026
     10 C21       -36.7959   13.4358  -22.4718 C.ar    1  FWZ1       -0.1112157179
     11 C22       -35.5464   12.7918  -22.3780 C.ar    1  FWZ1        0.0240294885
     12 C24       -35.6689   12.2911  -24.7653 C.ar    1  FWZ1       -0.2540672413
     13 C26       -35.3809   12.3113  -19.8664 C.ar    1  FWZ1        0.5175487914
     14 C28       -33.2264   12.6937  -19.2800 C.ar    1  FWZ1        0.1061684674
     15 C2        -36.0378   15.3653  -32.1596 C.3     1  FWZ1        0.2499207280
     16 C3        -36.5454   16.8269  -31.9149 C.3     1  FWZ1        0.4084733110
     17 N8        -35.1009   14.1015  -30.1937 N.am    1  FWZ1        0.0994680340
     18 O9        -37.2988   13.9659  -30.7021 O.2     1  FWZ1       -0.7047570129
     19 C11       -33.7584   13.0536  -28.4902 C.3     1  FWZ1       -0.2760416061
     20 C12       -32.8384   13.8585  -29.3975 C.3     1  FWZ1        0.3740957558
     21 O14       -31.9341   13.0127  -30.0842 O.3     1  FWZ1       -0.6489448187
     22 O16       -36.1543   14.8555  -27.6757 O.2     1  FWZ1       -0.5873858084
     23 N17       -36.8619   12.7330  -27.3521 N.am    1  FWZ1       -0.5203309067
     24 C18       -37.6866   12.9906  -26.1800 C.3     1  FWZ1        0.0363865070
     25 C19       -36.9293   12.9268  -24.8532 C.ar    1  FWZ1        0.0070640240
     26 C23       -34.9806   12.2364  -23.5413 C.ar    1  FWZ1       -0.0941786226
     27 C25       -34.8685   12.6794  -21.0917 C.ar    1  FWZ1       -0.2109659389
     28 N27       -34.4258   12.3029  -18.8481 N.ar    1  FWZ1       -0.5803672962
     29 S29       -33.1637   13.0505  -20.9957 S.2     1  FWZ1       -0.0156702083
     30 C30       -36.7904   11.9242  -19.5390 C.3     1  FWZ1       -0.3606310453
     31 C31       -36.3315   14.2145  -34.3553 C.2     1  FWZ1        0.4451216909
     32 C32       -37.3502   13.5582  -35.2314 C.3     1  FWZ1        0.1923557804
     33 O33       -35.1360   14.2694  -34.6384 O.2     1  FWZ1       -0.5412490286
     34 F34       -38.6213   13.5527  -34.6800 F       1  FWZ1       -0.2027908556
     35 C35       -37.2515   13.7318  -36.7279 C.3     1  FWZ1       -0.3909467512
     36 C36       -36.9639   12.3849  -36.1014 C.3     1  FWZ1       -0.1117542308
     37 O37       -38.7349   14.1156  -23.8311 O.3     1  FWZ1       -0.3674238311
     38 C38       -39.2301   14.9543  -22.7884 C.3     1  FWZ1        0.1212734014
     39 C39       -38.4767   16.2976  -22.6914 C.3     1  FWZ1       -0.1389215996
     40 C40       -39.1215   19.6339  -27.4683 C.3     1  FWZ1       -0.0556676701
     41 N41       -40.1656   19.1463  -28.3629 N.3     1  FWZ1        0.1353694009
     42 C42       -40.0074   19.7465  -29.6933 C.3     1  FWZ1        0.0522674766
     43 C43       -41.1845   19.4461  -30.6579 C.3     1  FWZ1        0.0874688200
     44 N44       -42.1434   18.4992  -30.1053 N.pl3   1  FWZ1       -0.2668559121
     45 C45       -42.5790   18.7046  -28.7299 C.3     1  FWZ1       -0.0671213597
     46 C46       -41.5168   19.4295  -27.8701 C.3     1  FWZ1        0.0577996946
     47 C47       -43.0334   17.9157  -31.0268 C.ar    1  FWZ1        0.1046167840
     48 C48       -44.3588   18.3642  -31.1970 C.ar    1  FWZ1       -0.4097122689
     49 C49       -45.1813   17.7389  -32.1746 C.ar    1  FWZ1        0.5934904179
     50 N50       -44.6821   16.6980  -32.8974 N.ar    1  FWZ1       -0.4507009839
     51 N51       -43.4308   16.2602  -32.7415 N.ar    1  FWZ1       -0.3909479001
     52 C52       -42.6187   16.8427  -31.8421 C.ar    1  FWZ1        0.7691063809
     53 N53       -41.3524   16.3028  -31.7027 N.pl3   1  FWZ1       -1.1054382058
     54 C54       -46.5875   18.1838  -32.4701 C.ar    1  FWZ1       -0.1335001930
     55 C55       -47.4864   17.5416  -33.3877 C.ar    1  FWZ1        0.2321318223
     56 C56       -48.7835   18.0462  -33.6134 C.ar    1  FWZ1       -0.2316106527
     57 C57       -49.2371   19.1836  -32.9386 C.ar    1  FWZ1       -0.0929238886
     58 C58       -48.3909   19.8326  -32.0356 C.ar    1  FWZ1       -0.2262114479
     59 C59       -47.0952   19.3379  -31.8093 C.ar    1  FWZ1       -0.0958239108
     60 O60       -47.1872   16.4140  -34.0999 O.3     1  FWZ1       -0.5339093189
     61 C61       -38.6476   17.1700  -23.9228 C.ar    1  FWZ1        0.1737232116
     62 C62       -37.9873   16.8375  -25.1235 C.ar    1  FWZ1       -0.2193509930
     63 C63       -38.1556   17.6336  -26.2703 C.ar    1  FWZ1       -0.1245330724
     64 C64       -38.9666   18.7850  -26.2212 C.ar    1  FWZ1        0.1212403989
     65 C65       -39.6193   19.1284  -25.0191 C.ar    1  FWZ1       -0.2173623962
     66 C66       -39.4650   18.3197  -23.8754 C.ar    1  FWZ1       -0.2153107216
     67 H1        -37.7871   14.5370  -33.0251 H       1  FWZ1        0.1594735815
     68 H2        -36.0238   16.9685  -29.7808 H       1  FWZ1        0.0323916290
     69 H3        -34.7533   17.5269  -30.8638 H       1  FWZ1        0.0323916290
     70 H4        -36.1677   18.5192  -30.5740 H       1  FWZ1        0.0323916290
     71 H5        -36.7935   17.3468  -34.0290 H       1  FWZ1        0.0714808252
     72 H6        -36.4350   18.7201  -32.9837 H       1  FWZ1        0.0714808252
     73 H7        -35.1614   17.5969  -33.4279 H       1  FWZ1        0.0714808252
     74 H8        -38.6396   16.3930  -32.4279 H       1  FWZ1        0.1969020550
     75 H9        -38.3412   16.4423  -30.7024 H       1  FWZ1        0.1969020550
     76 H10       -38.4176   17.9288  -31.6343 H       1  FWZ1        0.1969020550
     77 H11       -35.5137   12.1950  -29.4427 H       1  FWZ1        0.1277828784
     78 H12       -33.6713   15.6391  -30.2722 H       1  FWZ1        0.0996848056
     79 H13       -33.4128   14.3496  -31.4403 H       1  FWZ1        0.0996848056
     80 H14       -37.1970   13.8745  -21.5750 H       1  FWZ1        0.1297817796
     81 H15       -35.2169   11.8339  -25.6340 H       1  FWZ1        0.1432532288
     82 H16       -32.3926   12.7776  -18.5970 H       1  FWZ1        0.1513439344
     83 H17       -34.9947   15.4226  -32.4630 H       1  FWZ1       -0.0110720910
     84 H18       -33.4569   12.0135  -28.3931 H       1  FWZ1        0.1004473675
     85 H19       -33.7016   13.4712  -27.4823 H       1  FWZ1        0.1004473675
     86 H20       -32.2670   14.5867  -28.8172 H       1  FWZ1        0.0023692466
     87 H21       -31.7666   12.2301  -29.5709 H       1  FWZ1        0.4201299891
     88 H22       -36.8550   11.7956  -27.7416 H       1  FWZ1        0.3153773320
     89 H23       -38.4860   12.2531  -26.1474 H       1  FWZ1        0.1046281034
     90 H24       -38.1766   13.9609  -26.2852 H       1  FWZ1        0.1046281034
     91 H25       -34.0201   11.7444  -23.4943 H       1  FWZ1        0.1260189319
     92 H26       -36.8838   11.5644  -18.5155 H       1  FWZ1        0.0970128597
     93 H27       -37.4655   12.7733  -19.6309 H       1  FWZ1        0.0970128597
     94 H28       -37.1463   11.1367  -20.2031 H       1  FWZ1        0.0970128597
     95 H29       -36.4039   14.2894  -37.1232 H       1  FWZ1        0.1645232603
     96 H30       -38.1910   13.8740  -37.2555 H       1  FWZ1        0.1645232603
     97 H31       -37.7017   11.5931  -36.2088 H       1  FWZ1        0.1021609933
     98 H32       -35.9274   12.0541  -36.0685 H       1  FWZ1        0.1021609933
     99 H33       -39.2381   14.4295  -21.8333 H       1  FWZ1        0.0601725988
    100 H34       -40.2789   15.1574  -23.0074 H       1  FWZ1        0.0601725988
    101 H35       -37.4111   16.1356  -22.5320 H       1  FWZ1        0.0511362715
    102 H36       -38.8293   16.8442  -21.8164 H       1  FWZ1        0.0511362715
    103 H37       -39.3003   20.6750  -27.1955 H       1  FWZ1        0.0035645787
    104 H38       -38.1617   19.6110  -27.9885 H       1  FWZ1        0.0035645787
    105 H39       -39.0771   19.3804  -30.1259 H       1  FWZ1       -0.0128184560
    106 H40       -39.8955   20.8284  -29.6062 H       1  FWZ1       -0.0128184560
    107 H41       -40.7977   19.0630  -31.6017 H       1  FWZ1        0.0159336522
    108 H42       -41.7094   20.3740  -30.8788 H       1  FWZ1        0.0159336522
    109 H43       -42.7450   17.7148  -28.3065 H       1  FWZ1        0.0685042351
    110 H44       -43.5243   19.2459  -28.6854 H       1  FWZ1        0.0685042351
    111 H45       -41.6922   20.5064  -27.8909 H       1  FWZ1        0.0004576168
    112 H46       -41.6335   19.1104  -26.8347 H       1  FWZ1        0.0004576168
    113 H47       -44.7042   19.1846  -30.5944 H       1  FWZ1        0.1462842679
    114 H48       -41.2039   15.3320  -31.9714 H       1  FWZ1        0.4908093547
    115 H49       -40.8903   16.5921  -30.8504 H       1  FWZ1        0.2620674630
    116 H50       -49.4516   17.5813  -34.3241 H       1  FWZ1        0.1315320480
    117 H51       -50.2240   19.5702  -33.1313 H       1  FWZ1        0.1287473694
    118 H52       -48.7361   20.7200  -31.5215 H       1  FWZ1        0.1393168445
    119 H53       -46.5116   19.9039  -31.1027 H       1  FWZ1        0.1231107599
    120 H54       -47.9673   16.0696  -34.5108 H       1  FWZ1        0.4257845549
    121 H55       -37.3565   15.9633  -25.1811 H       1  FWZ1        0.1577363456
    122 H56       -37.6598   17.3564  -27.1908 H       1  FWZ1        0.0543691617
    123 H57       -40.2454   20.0068  -24.9761 H       1  FWZ1        0.1413383766
    124 H58       -39.9771   18.5881  -22.9639 H       1  FWZ1        0.1390696906
@<TRIPOS>BOND
     1     1    15    1
     2     1    31   am
     3     1    67    1
     4     2    15    1
     5     2    17   am
     6     2    18    2
     7     3    16    1
     8     3    68    1
     9     3    69    1
    10     3    70    1
    11     4    16    1
    12     4    71    1
    13     4    72    1
    14     4    73    1
    15     5    16    1
    16     5    74    1
    17     5    75    1
    18     5    76    1
    19     6     8    1
    20     6    17    1
    21     6    19    1
    22     6    77    1
    23     7    17    1
    24     7    20    1
    25     7    78    1
    26     7    79    1
    27     8    22    2
    28     8    23   am
    29     9    10   ar
    30     9    25   ar
    31     9    37    1
    32    10    11   ar
    33    10    80    1
    34    11    26   ar
    35    11    27    1
    36    12    25   ar
    37    12    26   ar
    38    12    81    1
    39    13    27   ar
    40    13    28   ar
    41    13    30    1
    42    14    28   ar
    43    14    29   ar
    44    14    82    1
    45    15    16    1
    46    15    83    1
    47    19    20    1
    48    19    84    1
    49    19    85    1
    50    20    21    1
    51    20    86    1
    52    21    87    1
    53    23    24    1
    54    23    88    1
    55    24    25    1
    56    24    89    1
    57    24    90    1
    58    26    91    1
    59    27    29   ar
    60    30    92    1
    61    30    93    1
    62    30    94    1
    63    31    32    1
    64    31    33    2
    65    32    34    1
    66    32    35    1
    67    32    36    1
    68    35    36    1
    69    35    95    1
    70    35    96    1
    71    36    97    1
    72    36    98    1
    73    37    38    1
    74    38    39    1
    75    38    99    1
    76    38   100    1
    77    39    61    1
    78    39   101    1
    79    39   102    1
    80    40    41    1
    81    40    64    1
    82    40   103    1
    83    40   104    1
    84    41    42    1
    85    41    46    1
    86    42    43    1
    87    42   105    1
    88    42   106    1
    89    43    44    1
    90    43   107    1
    91    43   108    1
    92    44    45    1
    93    44    47    1
    94    45    46    1
    95    45   109    1
    96    45   110    1
    97    46   111    1
    98    46   112    1
    99    47    48   ar
   100    47    52   ar
   101    48    49   ar
   102    48   113    1
   103    49    50   ar
   104    49    54    1
   105    50    51   ar
   106    51    52   ar
   107    52    53    1
   108    53   114    1
   109    53   115    1
   110    54    55   ar
   111    54    59   ar
   112    55    56   ar
   113    55    60    1
   114    56    57   ar
   115    56   116    1
   116    57    58   ar
   117    57   117    1
   118    58    59   ar
   119    58   118    1
   120    59   119    1
   121    60   120    1
   122    61    62   ar
   123    61    66   ar
   124    62    63   ar
   125    62   121    1
   126    63    64   ar
   127    63   122    1
   128    64    65   ar
   129    65    66   ar
   130    65   123    1
   131    66   124    1
