@<TRIPOS>MOLECULE
*****
 125 131 0 0 0
SMALL
USER_CHARGES

@<TRIPOS>ATOM
      1 N1        -30.0569   13.2650  -32.8563 N.am    1  FX81       -0.5542043218
      2 C4        -29.4035   12.8619  -30.5898 C.2     1  FX81        0.2151615961
      3 C5        -28.9021   15.8877  -30.2832 C.3     1  FX81       -0.2899610299
      4 C6        -31.1126   15.5175  -31.3044 C.3     1  FX81       -0.0157052885
      5 C7        -29.1559   16.1371  -32.7487 C.3     1  FX81       -0.2995845497
      6 C10       -28.4350   11.5397  -28.7302 C.3     1  FX81       -0.5789875395
      7 C13       -26.9513   12.9274  -30.0520 C.3     1  FX81       -0.0540608933
      8 C15       -29.3931   12.0333  -27.6399 C.2     1  FX81        0.8153644463
      9 C20       -30.6489   11.6994  -23.2180 C.ar    1  FX81        0.0987403303
     10 C21       -29.9920   11.4826  -21.9843 C.ar    1  FX81       -0.0285833579
     11 C22       -28.7590   10.7964  -21.9231 C.ar    1  FX81        0.0210753537
     12 C24       -28.8267   10.5133  -24.3458 C.ar    1  FX81       -0.1894254362
     13 C26       -28.6335   10.1545  -19.4473 C.ar    1  FX81        0.5300425722
     14 C28       -26.4710   10.4377  -18.8262 C.ar    1  FX81        0.1158044418
     15 C2        -29.2230   13.8138  -31.7888 C.3     1  FX81        0.0526243148
     16 C3        -29.6041   15.3118  -31.5275 C.3     1  FX81        0.1658505557
     17 N8        -28.3349   12.4982  -29.8384 N.am    1  FX81        0.1818562747
     18 O9        -30.5335   12.4168  -30.3774 O.2     1  FX81       -0.3405897567
     19 C11       -27.0213   11.4265  -28.1325 C.3     1  FX81       -0.2521100493
     20 C12       -26.0785   12.1142  -29.1035 C.3     1  FX81        0.3635648349
     21 O14       -25.3925   11.1708  -29.8982 O.3     1  FX81       -0.6533895091
     22 O16       -29.5173   13.2394  -27.4248 O.2     1  FX81       -0.5967566516
     23 N17       -29.9900   11.1099  -26.8926 N.am    1  FX81       -0.4184572652
     24 C18       -30.7906   11.4115  -25.7156 C.3     1  FX81        0.1339388999
     25 C19       -30.0611   11.1988  -24.3994 C.ar    1  FX81       -0.0721662032
     26 C23       -28.1755   10.3298  -23.1165 C.ar    1  FX81       -0.1175927590
     27 C25       -28.0969   10.5666  -20.6462 C.ar    1  FX81       -0.2185400637
     28 N27       -27.6893   10.0745  -18.4244 N.ar    1  FX81       -0.5867866653
     29 S29       -26.3754   10.8553  -20.5246 S.2     1  FX81       -0.0181088632
     30 C30       -30.0575    9.8022  -19.1464 C.3     1  FX81       -0.3695712975
     31 C31       -29.6509   12.8215  -34.0456 C.2     1  FX81        0.4771615472
     32 C32       -30.7304   12.2396  -34.8991 C.3     1  FX81        0.2328728204
     33 O33       -28.4816   12.8961  -34.4164 O.2     1  FX81       -0.5265351958
     34 F34       -31.9718   12.2224  -34.2871 F       1  FX81       -0.2299703202
     35 C35       -30.7121   12.5272  -36.3792 C.3     1  FX81       -0.3198503161
     36 C36       -30.4246   11.1286  -35.8751 C.3     1  FX81       -0.1982379019
     37 O37       -31.8505   12.3665  -23.3576 O.3     1  FX81       -0.2279886553
     38 C38       -32.3829   13.1428  -22.2891 C.3     1  FX81       -0.1457976621
     39 O39       -31.7682   15.4298  -23.0282 O.3     1  FX81       -0.4101338530
     40 C40       -30.9903   15.2236  -24.2066 C.3     1  FX81        0.0539739832
     41 C41       -30.2456   16.5154  -24.5888 C.3     1  FX81       -0.2832458756
     42 O42       -30.9231   17.2730  -25.5772 O.3     1  FX81       -0.1371913852
     43 C43       -31.5879   14.4367  -22.0228 C.3     1  FX81        0.3106452914
     44 C44       -31.9840   18.0723  -25.0894 C.3     1  FX81       -0.0691436848
     45 C45       -32.6016   18.8464  -26.2720 C.3     1  FX81       -0.3364607619
     46 N46       -33.0440   18.0289  -27.4059 N.3     1  FX81        0.0423668227
     47 C47       -34.0874   17.0725  -27.0234 C.3     1  FX81       -0.3474284275
     48 C48       -34.5556   16.2162  -28.2093 C.3     1  FX81        0.0707071764
     49 N49       -35.0352   17.0802  -29.2740 N.pl3   1  FX81       -0.2268738090
     50 C50       -34.0312   18.0356  -29.7202 C.3     1  FX81        0.0314243517
     51 C51       -33.5356   18.8636  -28.5131 C.3     1  FX81       -0.2504737959
     52 C52       -35.9007   16.5075  -30.2255 C.ar    1  FX81       -0.0085637932
     53 C53       -37.2511   16.8905  -30.2231 C.ar    1  FX81       -0.3676524587
     54 C54       -38.1525   16.2868  -31.1382 C.ar    1  FX81        0.5997861835
     55 N55       -37.6941   15.3260  -31.9892 N.ar    1  FX81       -0.4223415253
     56 N56       -36.4125   14.9520  -32.0098 N.ar    1  FX81       -0.4416425233
     57 C57       -35.5294   15.5166  -31.1636 C.ar    1  FX81        0.7984379402
     58 N58       -34.2450   15.0123  -31.2222 N.pl3   1  FX81       -0.8434312185
     59 C59       -39.6030   16.6680  -31.2155 C.ar    1  FX81       -0.1933146612
     60 C60       -40.5859   16.0209  -32.0350 C.ar    1  FX81        0.2691504217
     61 C61       -41.9228   16.4673  -32.0631 C.ar    1  FX81       -0.2311670835
     62 C62       -42.3314   17.5463  -31.2734 C.ar    1  FX81       -0.0963525661
     63 C63       -41.4038   18.1939  -30.4542 C.ar    1  FX81       -0.1985412864
     64 C64       -40.0686   17.7592  -30.4296 C.ar    1  FX81       -0.1134123408
     65 O65       -40.3338   14.9395  -32.8304 O.3     1  FX81       -0.5281131755
     66 H1        -31.0117   13.0449  -32.5924 H       1  FX81        0.3045632260
     67 H2        -27.8258   15.8006  -30.3617 H       1  FX81        0.0705412456
     68 H3        -29.1279   16.9459  -30.1468 H       1  FX81        0.0705412456
     69 H4        -29.2090   15.3854  -29.3646 H       1  FX81        0.0705412456
     70 H5        -31.6933   15.1693  -32.1526 H       1  FX81        0.0205647910
     71 H6        -31.4653   14.9824  -30.4218 H       1  FX81        0.0205647910
     72 H7        -31.3546   16.5709  -31.1647 H       1  FX81        0.0205647910
     73 H8        -29.7452   15.8961  -33.6332 H       1  FX81        0.0764306595
     74 H9        -29.2443   17.2049  -32.5588 H       1  FX81        0.0764306595
     75 H10       -28.1148   15.9412  -32.9998 H       1  FX81        0.0764306595
     76 H11       -28.7681   10.5771  -29.1228 H       1  FX81        0.2697553327
     77 H12       -26.8581   13.9771  -29.7809 H       1  FX81        0.0530563668
     78 H13       -26.6263   12.8253  -31.0860 H       1  FX81        0.0530563668
     79 H14       -30.4202   11.8441  -21.0662 H       1  FX81        0.0893362532
     80 H15       -28.3628   10.1220  -25.2407 H       1  FX81        0.1218821725
     81 H16       -25.6428   10.4668  -18.1322 H       1  FX81        0.1489166208
     82 H17       -28.1877   13.7901  -32.1193 H       1  FX81        0.1483270234
     83 H18       -26.7485   10.3931  -27.9289 H       1  FX81        0.1198664829
     84 H19       -26.9510   11.9485  -27.1758 H       1  FX81        0.1198664829
     85 H20       -25.3513   12.7413  -28.5827 H       1  FX81       -0.0072130037
     86 H21       -25.0377   10.4716  -29.3570 H       1  FX81        0.4225677629
     87 H22       -29.9375   10.1488  -27.2149 H       1  FX81        0.2517972211
     88 H23       -31.6717   10.7787  -25.6932 H       1  FX81        0.0687196245
     89 H24       -31.1706   12.4342  -25.7618 H       1  FX81        0.0687196245
     90 H25       -27.2275    9.8119  -23.0947 H       1  FX81        0.1308811706
     91 H26       -30.1484    9.2684  -18.2017 H       1  FX81        0.0993466796
     92 H27       -30.6757   10.6948  -19.0648 H       1  FX81        0.0993466796
     93 H28       -30.4804    9.1678  -19.9249 H       1  FX81        0.0993466796
     94 H29       -29.8751   13.1066  -36.7669 H       1  FX81        0.1490592917
     95 H30       -31.6825   12.7594  -36.8077 H       1  FX81        0.1490592917
     96 H31       -31.1870   10.3600  -35.9799 H       1  FX81        0.1207191771
     97 H32       -29.3957   10.7745  -35.9105 H       1  FX81        0.1207191771
     98 H33       -32.4597   12.5396  -21.3846 H       1  FX81        0.1092318586
     99 H34       -33.4085   13.4055  -22.5486 H       1  FX81        0.1092318586
    100 H35       -31.6213   14.8764  -25.0252 H       1  FX81        0.0772117925
    101 H36       -30.2454   14.4442  -24.0481 H       1  FX81        0.0772117925
    102 H37       -29.2983   16.2421  -25.0461 H       1  FX81        0.1503696902
    103 H38       -29.9902   17.1133  -23.7126 H       1  FX81        0.1503696902
    104 H39       -30.5324   14.2349  -21.8538 H       1  FX81       -0.0007152948
    105 H40       -31.9579   14.8721  -21.0945 H       1  FX81       -0.0007152948
    106 H41       -31.6037   18.7784  -24.3502 H       1  FX81        0.1197083511
    107 H42       -32.7311   17.4587  -24.5859 H       1  FX81        0.1197083511
    108 H43       -31.8490   19.5521  -26.6265 H       1  FX81        0.1288986198
    109 H44       -33.4312   19.4527  -25.9053 H       1  FX81        0.1288986198
    110 H45       -34.9422   17.6022  -26.5999 H       1  FX81        0.1305670804
    111 H46       -33.7184   16.3972  -26.2514 H       1  FX81        0.1305670804
    112 H47       -35.3648   15.5731  -27.8947 H       1  FX81        0.0478208620
    113 H48       -33.7412   15.5807  -28.5595 H       1  FX81        0.0478208620
    114 H49       -34.4549   18.6975  -30.4712 H       1  FX81        0.0795576574
    115 H50       -33.1971   17.5054  -30.1791 H       1  FX81        0.0795576574
    116 H51       -32.7453   19.5369  -28.8488 H       1  FX81        0.0986609342
    117 H52       -34.3539   19.4974  -28.1660 H       1  FX81        0.0986609342
    118 H53       -37.5576   17.6317  -29.5054 H       1  FX81        0.1441932289
    119 H54       -34.1669   14.0440  -31.5276 H       1  FX81        0.2891765359
    120 H55       -33.6765   15.2477  -30.4238 H       1  FX81        0.2601117810
    121 H56       -42.6591   16.0005  -32.7016 H       1  FX81        0.1310201588
    122 H57       -43.3498   17.8910  -31.3103 H       1  FX81        0.1287816715
    123 H58       -41.7151   19.0368  -29.8502 H       1  FX81        0.1318154316
    124 H59       -39.4229   18.3249  -29.7786 H       1  FX81        0.1375800410
    125 H60       -41.1509   14.6062  -33.1693 H       1  FX81        0.4182878734
@<TRIPOS>BOND
     1     1    15    1
     2     1    31   am
     3     1    66    1
     4     2    15    1
     5     2    17   am
     6     2    18    2
     7     3    16    1
     8     3    67    1
     9     3    68    1
    10     3    69    1
    11     4    16    1
    12     4    70    1
    13     4    71    1
    14     4    72    1
    15     5    16    1
    16     5    73    1
    17     5    74    1
    18     5    75    1
    19     6     8    1
    20     6    17    1
    21     6    19    1
    22     6    76    1
    23     7    17    1
    24     7    20    1
    25     7    77    1
    26     7    78    1
    27     8    22    2
    28     8    23   am
    29     9    10   ar
    30     9    25   ar
    31     9    37    1
    32    10    11   ar
    33    10    79    1
    34    11    26   ar
    35    11    27    1
    36    12    25   ar
    37    12    26   ar
    38    12    80    1
    39    13    27   ar
    40    13    28   ar
    41    13    30    1
    42    14    28   ar
    43    14    29   ar
    44    14    81    1
    45    15    16    1
    46    15    82    1
    47    19    20    1
    48    19    83    1
    49    19    84    1
    50    20    21    1
    51    20    85    1
    52    21    86    1
    53    23    24    1
    54    23    87    1
    55    24    25    1
    56    24    88    1
    57    24    89    1
    58    26    90    1
    59    27    29   ar
    60    30    91    1
    61    30    92    1
    62    30    93    1
    63    31    32    1
    64    31    33    2
    65    32    34    1
    66    32    35    1
    67    32    36    1
    68    35    36    1
    69    35    94    1
    70    35    95    1
    71    36    96    1
    72    36    97    1
    73    37    38    1
    74    38    43    1
    75    38    98    1
    76    38    99    1
    77    39    40    1
    78    39    43    1
    79    40    41    1
    80    40   100    1
    81    40   101    1
    82    41    42    1
    83    41   102    1
    84    41   103    1
    85    42    44    1
    86    43   104    1
    87    43   105    1
    88    44    45    1
    89    44   106    1
    90    44   107    1
    91    45    46    1
    92    45   108    1
    93    45   109    1
    94    46    47    1
    95    46    51    1
    96    47    48    1
    97    47   110    1
    98    47   111    1
    99    48    49    1
   100    48   112    1
   101    48   113    1
   102    49    50    1
   103    49    52    1
   104    50    51    1
   105    50   114    1
   106    50   115    1
   107    51   116    1
   108    51   117    1
   109    52    53   ar
   110    52    57   ar
   111    53    54   ar
   112    53   118    1
   113    54    55   ar
   114    54    59    1
   115    55    56   ar
   116    56    57   ar
   117    57    58    1
   118    58   119    1
   119    58   120    1
   120    59    60   ar
   121    59    64   ar
   122    60    61   ar
   123    60    65    1
   124    61    62   ar
   125    61   121    1
   126    62    63   ar
   127    62   122    1
   128    63    64   ar
   129    63   123    1
   130    64   124    1
   131    65   125    1
