@<TRIPOS>MOLECULE
*****
 129 135 0 0 0
SMALL
USER_CHARGES

@<TRIPOS>ATOM
      1 O6         13.4360    1.9791   -1.1995 O.2     1  Q3R1       -0.5441935946
      2 C8         12.6631    2.6989   -1.8342 C.2     1  Q3R1        0.6548365693
      3 N          13.0821    3.7054   -2.6003 N.am    1  Q3R1       -0.5050057053
      4 C7         14.4674    4.1231   -2.7386 C.3     1  Q3R1       -0.0553271305
      5 C6         14.8905    5.1670   -1.7099 C.ar    1  Q3R1        0.1532924575
      6 C5         13.9409    5.9318   -0.9961 C.ar    1  Q3R1       -0.1892177797
      7 C4         14.3619    6.8921   -0.0595 C.ar    1  Q3R1       -0.1438049562
      8 C48        16.2618    5.3800   -1.4650 C.ar    1  Q3R1       -0.3054081818
      9 C49        16.6785    6.3539   -0.5365 C.ar    1  Q3R1       -0.0605844674
     10 C3         15.7335    7.1341    0.1650 C.ar    1  Q3R1        0.1546879998
     11 C2         16.1518    8.1868    1.0870 C.ar    1  Q3R1       -0.2872351546
     12 S          15.2651    8.3861    2.5764 S.2     1  Q3R1       -0.0125140098
     13 C50        16.3337    9.7058    2.9940 C.ar    1  Q3R1        0.1181738723
     14 N8         17.2465    9.9912    2.0604 N.ar    1  Q3R1       -0.5857786871
     15 C1         17.1698    9.1087    0.9743 C.ar    1  Q3R1        0.5600219359
     16 C          18.1400    9.2582   -0.1563 C.3     1  Q3R1       -0.4233688465
     17 C9         11.1408    2.5407   -1.6833 C.3     1  Q3R1       -0.0548018893
     18 N1         10.7325    1.1547   -1.4230 N.am    1  Q3R1        0.1753700530
     19 C12         9.9256    1.0456   -0.2061 C.3     1  Q3R1       -0.1781936634
     20 C11         9.7369    2.4645    0.3328 C.3     1  Q3R1        0.3730422270
     21 O           8.3826    2.8362    0.1504 O.3     1  Q3R1       -0.6552731806
     22 C10        10.6663    3.3601   -0.4747 C.3     1  Q3R1       -0.4093455665
     23 C13        10.9939    0.1441   -2.2845 C.2     1  Q3R1        0.2278641979
     24 O5         11.5256    0.3496   -3.3804 O.2     1  Q3R1       -0.5908444048
     25 C14        10.5599   -1.3030   -1.9508 C.3     1  Q3R1        0.1527469264
     26 C44        11.7407   -2.2634   -1.5739 C.3     1  Q3R1        0.4419021009
     27 C47        12.7683   -2.4590   -2.7149 C.3     1  Q3R1       -0.3476165866
     28 C46        12.4877   -1.7371   -0.3285 C.3     1  Q3R1       -0.1588657979
     29 C45        11.1566   -3.6453   -1.2036 C.3     1  Q3R1       -0.5017268243
     30 N2          9.8961   -1.7888   -3.1605 N.am    1  Q3R1       -0.4585376261
     31 C15         8.5736   -1.8998   -3.2843 C.2     1  Q3R1        0.5320122792
     32 O4          7.8115   -1.7343   -2.3416 O.2     1  Q3R1       -0.6002153002
     33 C16         8.0105   -2.2521   -4.6553 C.3     1  Q3R1       -0.2926602911
     34 C17         8.2831   -3.7016   -5.0869 C.3     1  Q3R1        0.0773709023
     35 C18         7.9502   -4.7808   -4.0440 C.3     1  Q3R1        0.0344832157
     36 N3          8.1985   -6.1159   -4.5777 N.am    1  Q3R1       -0.5174343703
     37 C19         7.3784   -6.8651   -5.3247 C.2     1  Q3R1        0.5892821650
     38 O3          6.2546   -6.4896   -5.6893 O.2     1  Q3R1       -0.5740749997
     39 C20         7.9511   -8.1828   -5.7638 C.ar    1  Q3R1       -0.0664272589
     40 C43         7.5797   -8.7544   -6.9980 C.ar    1  Q3R1       -0.0969620937
     41 C42         8.1624   -9.9617   -7.4383 C.ar    1  Q3R1       -0.1854637755
     42 C23         9.1149  -10.6535   -6.6510 C.ar    1  Q3R1        0.1406817895
     43 C22         9.4234  -10.1016   -5.3841 C.ar    1  Q3R1       -0.1518221533
     44 C21         8.8594   -8.8886   -4.9455 C.ar    1  Q3R1       -0.1748212047
     45 C24         9.7619  -11.9148   -7.1064 C.ar    1  Q3R1        0.0208596217
     46 C41        10.9903  -12.3385   -6.5493 C.ar    1  Q3R1       -0.2476336396
     47 C33        11.5684  -13.5926   -6.8576 C.ar    1  Q3R1        0.2021298919
     48 C27        10.9138  -14.4641   -7.7591 C.ar    1  Q3R1        0.0911788467
     49 N4         11.2992  -15.7946   -7.9939 N.pl3   1  Q3R1       -0.1057964893
     50 C32        11.6937  -16.6357   -6.8567 C.3     1  Q3R1       -0.1487902960
     51 C31        11.7882  -18.1151   -7.2735 C.3     1  Q3R1       -0.0850104077
     52 N5         12.7852  -18.2258   -8.3342 N.3     1  Q3R1       -0.2388560392
     53 C30        13.0498  -19.6168   -8.6742 C.3     1  Q3R1       -0.1847501728
     54 C29        12.3107  -17.4912   -9.5097 C.3     1  Q3R1       -0.0051312832
     55 C28        12.1516  -15.9955   -9.1612 C.3     1  Q3R1       -0.3402280024
     56 C26         9.7757  -13.9875   -8.4341 C.ar    1  Q3R1       -0.1477686342
     57 C25         9.2002  -12.7408   -8.1071 C.ar    1  Q3R1       -0.2305993119
     58 N6         12.8489  -13.9109   -6.3483 N.am    1  Q3R1       -0.3627667156
     59 C34        13.2655  -13.6808   -5.0983 C.2     1  Q3R1        0.5711402863
     60 O2         12.5097  -13.5611   -4.1335 O.2     1  Q3R1       -0.5167189765
     61 C35        14.7414  -13.5497   -4.9291 C.ar    1  Q3R1       -0.4063152714
     62 C39        15.4733  -14.2195   -3.9176 C.ar    1  Q3R1        0.1529727267
     63 C40        14.8351  -15.2730   -3.0217 C.3     1  Q3R1        0.5444449412
     64 F2         14.0441  -14.7168   -2.1038 F       1  Q3R1       -0.1777447242
     65 F1         15.7732  -15.9677   -2.3712 F       1  Q3R1       -0.2010124125
     66 F          14.1436  -16.1404   -3.7556 F       1  Q3R1       -0.1856952824
     67 C38        16.8392  -13.8872   -3.7551 C.ar    1  Q3R1       -0.4438935912
     68 C37        17.3998  -12.9174   -4.5975 C.ar    1  Q3R1        0.8238137076
     69 O1         18.6557  -12.4655   -4.4025 O.3     1  Q3R1       -0.6173224765
     70 N7         16.7267  -12.3565   -5.5935 N.ar    1  Q3R1       -0.7715223627
     71 C36        15.4281  -12.6340   -5.7420 C.ar    1  Q3R1        0.5101103151
     72 H1         12.3634    4.3175   -2.9892 H       1  Q3R1        0.3309682236
     73 H2         14.5968    4.5443   -3.7356 H       1  Q3R1        0.1078379910
     74 H3         15.1310    3.2576   -2.6800 H       1  Q3R1        0.1078379910
     75 H4         12.8810    5.7973   -1.1586 H       1  Q3R1        0.1201188928
     76 H5         13.6129    7.4659    0.4663 H       1  Q3R1        0.1326113077
     77 H6         17.0012    4.7938   -1.9924 H       1  Q3R1        0.1594327353
     78 H7         17.7354    6.4912   -0.3667 H       1  Q3R1        0.1123819553
     79 H8         16.2742   10.2634    3.9186 H       1  Q3R1        0.1485539383
     80 H9         18.5923   10.2481   -0.1771 H       1  Q3R1        0.1135783985
     81 H10        18.9487    8.5323   -0.0728 H       1  Q3R1        0.1135783985
     82 H11        17.6511    9.1012   -1.1183 H       1  Q3R1        0.1135783985
     83 H12        10.6350    2.8754   -2.5914 H       1  Q3R1        0.0722683379
     84 H13        10.4589    0.4417    0.5293 H       1  Q3R1        0.0781918864
     85 H14         8.9672    0.5600   -0.3957 H       1  Q3R1        0.0781918864
     86 H15         9.9724    2.5158    1.3981 H       1  Q3R1        0.0136466945
     87 H16         8.3195    3.7281   -0.1742 H       1  Q3R1        0.4239232774
     88 H17        10.2040    4.2925   -0.7926 H       1  Q3R1        0.1332069619
     89 H18        11.5038    3.6420    0.1676 H       1  Q3R1        0.1332069619
     90 H19         9.8655   -1.3112   -1.1120 H       1  Q3R1        0.0854335881
     91 H20        13.5463   -3.1658   -2.4236 H       1  Q3R1        0.0798717225
     92 H21        12.3073   -2.8476   -3.6226 H       1  Q3R1        0.0798717225
     93 H22        13.2753   -1.5284   -2.9734 H       1  Q3R1        0.0798717225
     94 H23        13.2576   -2.4357    0.0009 H       1  Q3R1        0.0164143227
     95 H24        12.9899   -0.7885   -0.5223 H       1  Q3R1        0.0164143227
     96 H25        11.8109   -1.5821    0.5131 H       1  Q3R1        0.0164143227
     97 H26        11.9331   -4.3253   -0.8511 H       1  Q3R1        0.1148378405
     98 H27        10.4123   -3.5613   -0.4100 H       1  Q3R1        0.1148378405
     99 H28        10.6745   -4.1234   -2.0555 H       1  Q3R1        0.1148378405
    100 H29        10.4693   -1.7916   -3.9913 H       1  Q3R1        0.3148292472
    101 H30         8.4210   -1.5655   -5.3927 H       1  Q3R1        0.1030049572
    102 H31         6.9344   -2.0687   -4.6315 H       1  Q3R1        0.1030049572
    103 H32         9.3259   -3.7940   -5.3955 H       1  Q3R1        0.0156763399
    104 H33         7.6756   -3.8798   -5.9701 H       1  Q3R1        0.0156763399
    105 H34         6.9253   -4.6692   -3.6997 H       1  Q3R1        0.0823793778
    106 H35         8.5753   -4.6636   -3.1581 H       1  Q3R1        0.0823793778
    107 H36         9.1102   -6.5148   -4.3948 H       1  Q3R1        0.3078161056
    108 H37         6.8553   -8.2623   -7.6244 H       1  Q3R1        0.1198823959
    109 H38         7.8791  -10.3460   -8.4054 H       1  Q3R1        0.1301119713
    110 H39        10.1086  -10.6094   -4.7201 H       1  Q3R1        0.1398328752
    111 H40         9.1445   -8.5174   -3.9714 H       1  Q3R1        0.1327276326
    112 H41        11.5196  -11.6899   -5.8697 H       1  Q3R1        0.1513543623
    113 H42        10.9938  -16.5182   -6.0299 H       1  Q3R1        0.1198710455
    114 H43        12.6761  -16.3510   -6.4842 H       1  Q3R1        0.1198710455
    115 H44        10.8219  -18.4941   -7.6086 H       1  Q3R1        0.0952467892
    116 H45        12.0942  -18.7161   -6.4165 H       1  Q3R1        0.0952467892
    117 H46        13.8038  -19.6775   -9.4592 H       1  Q3R1        0.0833895601
    118 H47        13.4423  -20.1565   -7.8118 H       1  Q3R1        0.0833895601
    119 H48        12.1528  -20.1267   -9.0242 H       1  Q3R1        0.0833895601
    120 H49        11.3656  -17.9031   -9.8656 H       1  Q3R1        0.0805620318
    121 H50        13.0319  -17.5964  -10.3229 H       1  Q3R1        0.0805620318
    122 H51        13.1358  -15.5817   -8.9548 H       1  Q3R1        0.1562191375
    123 H52        11.7455  -15.4649  -10.0221 H       1  Q3R1        0.1562191375
    124 H53         9.3026  -14.6351   -9.1569 H       1  Q3R1        0.1442125625
    125 H54         8.2864  -12.4589   -8.6004 H       1  Q3R1        0.1503195031
    126 H55        13.5011  -14.3322   -7.0055 H       1  Q3R1        0.1914573106
    127 H56        17.4369  -14.3476   -2.9893 H       1  Q3R1        0.2159848059
    128 H57        14.9206  -12.0834   -6.5210 H       1  Q3R1        0.0333657266
    129 H58        18.6939  -11.6790   -4.9463 H       1  Q3R1        0.4427605407
@<TRIPOS>BOND
     1     1     2    2
     2     2     3   am
     3     2    17    1
     4     3     4    1
     5     3    72    1
     6     4     5    1
     7     4    73    1
     8     4    74    1
     9     5     6   ar
    10     5     8   ar
    11     6     7   ar
    12     6    75    1
    13     7    10   ar
    14     7    76    1
    15     8     9   ar
    16     8    77    1
    17     9    10   ar
    18     9    78    1
    19    10    11    1
    20    11    12   ar
    21    11    15   ar
    22    12    13   ar
    23    13    14   ar
    24    13    79    1
    25    14    15   ar
    26    15    16    1
    27    16    80    1
    28    16    81    1
    29    16    82    1
    30    17    18    1
    31    17    22    1
    32    17    83    1
    33    18    19    1
    34    18    23   am
    35    19    20    1
    36    19    84    1
    37    19    85    1
    38    20    21    1
    39    20    22    1
    40    20    86    1
    41    21    87    1
    42    22    88    1
    43    22    89    1
    44    23    24    2
    45    23    25    1
    46    25    26    1
    47    25    30    1
    48    25    90    1
    49    26    27    1
    50    26    28    1
    51    26    29    1
    52    27    91    1
    53    27    92    1
    54    27    93    1
    55    28    94    1
    56    28    95    1
    57    28    96    1
    58    29    97    1
    59    29    98    1
    60    29    99    1
    61    30    31   am
    62    30   100    1
    63    31    32    2
    64    31    33    1
    65    33    34    1
    66    33   101    1
    67    33   102    1
    68    34    35    1
    69    34   103    1
    70    34   104    1
    71    35    36    1
    72    35   105    1
    73    35   106    1
    74    36    37   am
    75    36   107    1
    76    37    38    2
    77    37    39    1
    78    39    40   ar
    79    39    44   ar
    80    40    41   ar
    81    40   108    1
    82    41    42   ar
    83    41   109    1
    84    42    43   ar
    85    42    45    1
    86    43    44   ar
    87    43   110    1
    88    44   111    1
    89    45    46   ar
    90    45    57   ar
    91    46    47   ar
    92    46   112    1
    93    47    48   ar
    94    47    58    1
    95    48    49    1
    96    48    56   ar
    97    49    50    1
    98    49    55    1
    99    50    51    1
   100    50   113    1
   101    50   114    1
   102    51    52    1
   103    51   115    1
   104    51   116    1
   105    52    53    1
   106    52    54    1
   107    53   117    1
   108    53   118    1
   109    53   119    1
   110    54    55    1
   111    54   120    1
   112    54   121    1
   113    55   122    1
   114    55   123    1
   115    56    57   ar
   116    56   124    1
   117    57   125    1
   118    58    59   am
   119    58   126    1
   120    59    60    2
   121    59    61    1
   122    61    62   ar
   123    61    71   ar
   124    62    63    1
   125    62    67   ar
   126    63    64    1
   127    63    65    1
   128    63    66    1
   129    67    68   ar
   130    67   127    1
   131    68    69    1
   132    68    70   ar
   133    69   129    1
   134    70    71   ar
   135    71   128    1
