@<TRIPOS>MOLECULE
*****
 136 143 0 0 0
SMALL
USER_CHARGES

@<TRIPOS>ATOM
      1 N1         10.2560   -4.3545  -27.9772 N.am    1  Q431       -0.3160143085
      2 C11         7.6273   -6.0963  -27.2214 C.3     1  Q431       -0.2189619628
      3 C31        16.5155   -1.6950   -7.6748 C.ar    1  Q431        0.0702387627
      4 C51         9.9880   -3.1162  -21.9307 C.3     1  Q431       -0.2579151622
      5 C1          7.2950   -1.0933  -34.2080 C.ar    1  Q431        0.6027410857
      6 O1          6.7519   -8.1166  -26.2837 O.3     1  Q431       -0.6356164866
      7 N2          8.5857   -5.7444  -25.0402 N.am    1  Q431        0.0718552195
      8 C12         6.7020   -6.7081  -26.1884 C.3     1  Q431        0.2629696251
      9 C32        18.3051   -0.5476   -6.5241 C.3     1  Q431       -0.3467995336
     10 C52         8.3263   -4.2874  -20.4629 C.3     1  Q431       -0.5097760672
     11 C2          5.2530   -1.9189  -34.7513 C.ar    1  Q431        0.1187703904
     12 O2         10.6290   -5.0677  -24.3454 O.2     1  Q431       -0.5871650293
     13 N3         10.2201   -6.0478  -21.8485 N.am    1  Q431       -0.5797899251
     14 C13         7.2451   -6.2917  -24.8184 C.3     1  Q431       -0.0557887766
     15 C33        19.0453   -0.4351   -5.1743 C.3     1  Q431        0.0106591881
     16 C53         7.6113   -3.3713  -22.6616 C.3     1  Q431       -0.1874618479
     17 C3          7.0708   -1.9068  -33.1202 C.ar    1  Q431       -0.3295167139
     18 O3          9.5870   -8.2001  -21.8835 O.2     1  Q431       -0.6292379270
     19 F2         10.7836    1.4040   -5.8912 F       1  Q431       -0.2039810046
     20 C44        11.8315    2.1992   -5.6765 C.3     1  Q431        0.5988134217
     21 F          12.7384    1.5577   -4.9399 F       1  Q431       -0.2066550457
     22 F1         11.4035    3.2341   -4.9473 F       1  Q431       -0.2138703849
     23 C43        12.4160    2.6920   -6.9982 C.ar    1  Q431        0.1070378208
     24 C42        12.1067    3.9925   -7.4723 C.ar    1  Q431       -0.4479532539
     25 C41        12.6370    4.4173   -8.7035 C.ar    1  Q431        0.8403156429
     26 O6         12.2756    5.6125   -9.2309 O.3     1  Q431       -0.6054251574
     27 N8         13.4713    3.6613   -9.4113 N.ar    1  Q431       -0.7908012705
     28 C40        13.7669    2.4320   -8.9852 C.ar    1  Q431        0.4978451277
     29 C39        13.2576    1.8811   -7.7991 C.ar    1  Q431       -0.3537185180
     30 C38        13.5331    0.4391   -7.5283 C.2     1  Q431        0.6263586819
     31 O5         12.6183   -0.3470   -7.2810 O.2     1  Q431       -0.4935504341
     32 N7         14.8202    0.0886   -7.6157 N.am    1  Q431       -0.3804387089
     33 C37        15.3222   -1.1115   -8.1700 C.ar    1  Q431        0.2357073795
     34 N5         17.1035   -1.3735   -6.4359 N.pl3   1  Q431       -0.0197526643
     35 C36        16.2524   -0.9942   -5.3004 C.3     1  Q431       -0.2197754728
     36 C35        17.0527   -0.9650   -3.9850 C.3     1  Q431       -0.0477562764
     37 N6         18.1099    0.0284   -4.1469 N.3     1  Q431       -0.2555472389
     38 C34        18.7945    0.3402   -2.9036 C.3     1  Q431       -0.1214133471
     39 C30        17.1324   -2.6969   -8.4513 C.ar    1  Q431       -0.1719070151
     40 C29        16.5148   -3.2084   -9.6126 C.ar    1  Q431       -0.2153566855
     41 C45        14.7109   -1.6389   -9.3315 C.ar    1  Q431       -0.2967940102
     42 C28        15.2510   -2.7374  -10.0350 C.ar    1  Q431        0.0631839370
     43 C27        14.4885   -3.3814  -11.1368 C.ar    1  Q431        0.0530459029
     44 C26        15.1136   -4.1484  -12.1498 C.ar    1  Q431       -0.1415461536
     45 C25        14.3551   -4.8311  -13.1262 C.ar    1  Q431       -0.0996516934
     46 C46        13.0754   -3.2969  -11.1650 C.ar    1  Q431       -0.0480913217
     47 C47        12.3141   -3.9554  -12.1477 C.ar    1  Q431       -0.1969325225
     48 C24        12.9476   -4.7398  -13.1320 C.ar    1  Q431       -0.0943997587
     49 C23        12.1309   -5.5261  -14.1107 C.2     1  Q431        0.6543010962
     50 O4         12.4003   -6.6959  -14.3906 O.2     1  Q431       -0.5929669402
     51 N4         11.0978   -4.8800  -14.6596 N.am    1  Q431       -0.4505326779
     52 C22        10.0628   -5.4871  -15.4932 C.3     1  Q431       -0.0824384074
     53 C21        10.5543   -6.1543  -16.7742 C.ar    1  Q431        0.0615749729
     54 C20        11.6578   -5.6360  -17.4844 C.ar    1  Q431       -0.1381084263
     55 C19        12.0381   -6.1782  -18.7244 C.ar    1  Q431       -0.2854498394
     56 C48         9.8684   -7.2720  -17.2931 C.ar    1  Q431       -0.1345524779
     57 C49        10.2560   -7.8295  -18.5260 C.ar    1  Q431       -0.3229165265
     58 C18        11.3129   -7.2560  -19.2672 C.ar    1  Q431        0.3046975925
     59 C17        11.5875   -7.7233  -20.6886 C.3     1  Q431       -0.4424505355
     60 C16        10.3909   -7.3402  -21.5583 C.2     1  Q431        0.7379410533
     61 C15         9.0802   -5.4792  -22.5703 C.3     1  Q431        0.0093143356
     62 C50         8.7722   -4.0763  -21.9299 C.3     1  Q431        0.4288986138
     63 C14         9.4729   -5.4041  -24.0709 C.2     1  Q431        0.3993776541
     64 C10         8.9125   -5.7167  -26.4749 C.3     1  Q431        0.0159946383
     65 C9          9.3726   -4.3441  -26.9785 C.2     1  Q431        0.5201780986
     66 O           8.8584   -3.3121  -26.5406 O.2     1  Q431       -0.5393749693
     67 C8         10.6588   -3.1742  -28.7204 C.3     1  Q431       -0.1209688551
     68 C7          9.6912   -2.8371  -29.8471 C.ar    1  Q431        0.0983840863
     69 C6          9.5872   -1.5099  -30.3068 C.ar    1  Q431       -0.1250466202
     70 C5          8.7083   -1.1912  -31.3597 C.ar    1  Q431       -0.2787899628
     71 C54         8.8874   -3.8342  -30.4403 C.ar    1  Q431       -0.1317403582
     72 C55         8.0115   -3.5120  -31.4868 C.ar    1  Q431       -0.1491005191
     73 C4          7.9288   -2.1940  -31.9776 C.ar    1  Q431        0.2515700646
     74 C           8.4902   -0.2305  -34.4785 C.3     1  Q431       -0.3978419722
     75 S           5.5205   -2.7089  -33.2174 S.2     1  Q431       -0.0191394812
     76 N           6.2676   -1.1499  -35.1559 N.ar    1  Q431       -0.6108005794
     77 H1         10.5315   -5.2582  -28.3487 H       1  Q431        0.2036839232
     78 H2          7.1305   -5.2172  -27.6388 H       1  Q431        0.0731526442
     79 H3          7.8380   -6.7539  -28.0640 H       1  Q431        0.0731526442
     80 H4         10.3244   -2.8840  -22.9420 H       1  Q431        0.0545731454
     81 H5          9.7356   -2.1646  -21.4614 H       1  Q431        0.0545731454
     82 H6         10.8409   -3.5186  -21.3848 H       1  Q431        0.0545731454
     83 H7          6.7782   -8.3782  -27.1987 H       1  Q431        0.4112963774
     84 H8          5.6715   -6.3786  -26.3337 H       1  Q431        0.0240435725
     85 H9         18.9849   -0.9316   -7.2849 H       1  Q431        0.1558554450
     86 H10        18.0080    0.4535   -6.8225 H       1  Q431        0.1558554450
     87 H11         7.4697   -4.9599  -20.4039 H       1  Q431        0.1191954157
     88 H12         9.1180   -4.7186  -19.8488 H       1  Q431        0.1191954157
     89 H13         8.0359   -3.3472  -19.9929 H       1  Q431        0.1191954157
     90 H14         4.3547   -2.0269  -35.3427 H       1  Q431        0.1560149105
     91 H15        10.9601   -5.4024  -21.6318 H       1  Q431        0.3621706585
     92 H16         6.6072   -5.5130  -24.4002 H       1  Q431        0.0508151252
     93 H17         7.2485   -7.1275  -24.1186 H       1  Q431        0.0508151252
     94 H18        19.8659    0.2781   -5.2767 H       1  Q431        0.0709459427
     95 H19        19.4860   -1.3918   -4.8928 H       1  Q431        0.0709459427
     96 H20         6.7175   -3.9924  -22.6852 H       1  Q431        0.0263048176
     97 H21         7.3371   -2.4355  -22.1738 H       1  Q431        0.0263048176
     98 H22         7.8652   -3.1230  -23.6929 H       1  Q431        0.0263048176
     99 H23        11.4508    4.6440   -6.9220 H       1  Q431        0.2101349611
    100 H24        14.3995    1.8566   -9.6461 H       1  Q431        0.0682611058
    101 H25        15.5278    0.8002   -7.4333 H       1  Q431        0.0912940078
    102 H26        15.3966   -1.6632   -5.2235 H       1  Q431        0.1358219358
    103 H27        15.8609    0.0129   -5.4340 H       1  Q431        0.1358219358
    104 H28        17.4639   -1.9458   -3.7431 H       1  Q431        0.0843974766
    105 H29        16.3942   -0.6725   -3.1664 H       1  Q431        0.0843974766
    106 H30        18.0898    0.7018   -2.1553 H       1  Q431        0.0682358764
    107 H31        19.3105   -0.5228   -2.4999 H       1  Q431        0.0682358764
    108 H32        19.5320    1.1269   -3.0664 H       1  Q431        0.0682358764
    109 H33        18.0644   -3.1175   -8.1051 H       1  Q431        0.1587666362
    110 H34        16.9968   -4.0164  -10.1359 H       1  Q431        0.1360067548
    111 H35        13.8077   -1.1745   -9.6949 H       1  Q431        0.1551144228
    112 H36        16.1893   -4.2355  -12.1719 H       1  Q431        0.1298808906
    113 H37        14.8566   -5.4454  -13.8587 H       1  Q431        0.1340297642
    114 H38        12.5465   -2.7495  -10.3984 H       1  Q431        0.1181201725
    115 H39        11.2374   -3.8832  -12.1015 H       1  Q431        0.1160100182
    116 H40        10.9865   -3.9080  -14.4061 H       1  Q431        0.3318137187
    117 H41         9.3529   -4.7077  -15.7752 H       1  Q431        0.0990404247
    118 H42         9.5047   -6.2071  -14.8928 H       1  Q431        0.0990404247
    119 H43        12.1918   -4.7855  -17.1016 H       1  Q431        0.1649318335
    120 H44        12.8462   -5.7251  -19.2824 H       1  Q431        0.1600057908
    121 H45         9.0085   -7.6825  -16.7832 H       1  Q431        0.1447123245
    122 H46         9.6883   -8.6539  -18.9416 H       1  Q431        0.1579833716
    123 H47        11.7181   -8.8062  -20.7082 H       1  Q431        0.1291893498
    124 H48        12.4957   -7.2777  -21.0957 H       1  Q431        0.1291893498
    125 H49         8.2124   -6.1232  -22.4297 H       1  Q431        0.1077464099
    126 H50         9.6845   -6.4651  -26.6612 H       1  Q431        0.0095890386
    127 H51        11.6449   -3.3571  -29.1479 H       1  Q431        0.1155587874
    128 H52        10.7634   -2.3212  -28.0461 H       1  Q431        0.1155587874
    129 H53        10.1799   -0.7308  -29.8485 H       1  Q431        0.1288075399
    130 H54         8.6394   -0.1640  -31.6792 H       1  Q431        0.1548334275
    131 H55         8.9289   -4.8576  -30.1035 H       1  Q431        0.1068324968
    132 H56         7.4179   -4.3003  -31.9255 H       1  Q431        0.1242843308
    133 H57         8.4320    0.2588  -35.4486 H       1  Q431        0.1077265738
    134 H58         8.5755    0.5676  -33.7436 H       1  Q431        0.1077265738
    135 H59         9.4110   -0.8131  -34.4458 H       1  Q431        0.1077265738
    136 H60        12.5199    5.6362  -10.1763 H       1  Q431        0.4357762278
@<TRIPOS>BOND
     1     1    65   am
     2     1    67    1
     3     1    77    1
     4     2     8    1
     5     2    64    1
     6     2    78    1
     7     2    79    1
     8     3    33   ar
     9     3    34    1
    10     3    39   ar
    11     4    62    1
    12     4    80    1
    13     4    81    1
    14     4    82    1
    15     5    17   ar
    16     5    74    1
    17     5    76   ar
    18     6     8    1
    19     6    83    1
    20     7    14    1
    21     7    63   am
    22     7    64    1
    23     8    14    1
    24     8    84    1
    25     9    15    1
    26     9    34    1
    27     9    85    1
    28     9    86    1
    29    10    62    1
    30    10    87    1
    31    10    88    1
    32    10    89    1
    33    11    75   ar
    34    11    76   ar
    35    11    90    1
    36    12    63    2
    37    13    60   am
    38    13    61    1
    39    13    91    1
    40    14    92    1
    41    14    93    1
    42    15    37    1
    43    15    94    1
    44    15    95    1
    45    16    62    1
    46    16    96    1
    47    16    97    1
    48    16    98    1
    49    17    73    1
    50    17    75   ar
    51    18    60    2
    52    19    20    1
    53    20    21    1
    54    20    22    1
    55    20    23    1
    56    23    24   ar
    57    23    29   ar
    58    24    25   ar
    59    24    99    1
    60    25    26    1
    61    25    27   ar
    62    26   136    1
    63    27    28   ar
    64    28    29   ar
    65    28   100    1
    66    29    30    1
    67    30    31    2
    68    30    32   am
    69    32    33    1
    70    32   101    1
    71    33    41   ar
    72    34    35    1
    73    35    36    1
    74    35   102    1
    75    35   103    1
    76    36    37    1
    77    36   104    1
    78    36   105    1
    79    37    38    1
    80    38   106    1
    81    38   107    1
    82    38   108    1
    83    39    40   ar
    84    39   109    1
    85    40    42   ar
    86    40   110    1
    87    41    42   ar
    88    41   111    1
    89    42    43    1
    90    43    44   ar
    91    43    46   ar
    92    44    45   ar
    93    44   112    1
    94    45    48   ar
    95    45   113    1
    96    46    47   ar
    97    46   114    1
    98    47    48   ar
    99    47   115    1
   100    48    49    1
   101    49    50    2
   102    49    51   am
   103    51    52    1
   104    51   116    1
   105    52    53    1
   106    52   117    1
   107    52   118    1
   108    53    54   ar
   109    53    56   ar
   110    54    55   ar
   111    54   119    1
   112    55    58   ar
   113    55   120    1
   114    56    57   ar
   115    56   121    1
   116    57    58   ar
   117    57   122    1
   118    58    59    1
   119    59    60    1
   120    59   123    1
   121    59   124    1
   122    61    62    1
   123    61    63    1
   124    61   125    1
   125    64    65    1
   126    64   126    1
   127    65    66    2
   128    67    68    1
   129    67   127    1
   130    67   128    1
   131    68    69   ar
   132    68    71   ar
   133    69    70   ar
   134    69   129    1
   135    70    73   ar
   136    70   130    1
   137    71    72   ar
   138    71   131    1
   139    72    73   ar
   140    72   132    1
   141    74   133    1
   142    74   134    1
   143    74   135    1
